<?xml version="1.0" encoding="UTF-8" standalone="yes"?>
<template>
  <description></description>
  <name>Data Ingest</name>
  <snippet>
    <connections>
      <id>1631a4df-642a-406f-acbf-5d019cd3eee7</id>
      <parentGroupId>e9a7715d-c8bc-44e6-85b5-f15614555fab</parentGroupId>
      <backPressureDataSizeThreshold>0 MB</backPressureDataSizeThreshold>
      <backPressureObjectThreshold>0</backPressureObjectThreshold>
      <destination>
        <groupId>e9a7715d-c8bc-44e6-85b5-f15614555fab</groupId>
        <id>8e599084-88fd-4b13-9a36-5179cdedbc52</id>
        <type>OUTPUT_PORT</type>
      </destination>
      <flowFileExpiration>0 sec</flowFileExpiration>
      <labelIndex>1</labelIndex>
      <name></name>
      <selectedRelationships>Success</selectedRelationships>
      <source>
        <groupId>e9a7715d-c8bc-44e6-85b5-f15614555fab</groupId>
        <id>82d0e5c6-48ac-4fd6-8ac0-2ed4d24fb92c</id>
        <type>PROCESSOR</type>
      </source>
      <zIndex>0</zIndex>
    </connections>
    <connections>
      <id>7930e289-98aa-46dc-9f39-88ce6ba5646a</id>
      <parentGroupId>e9a7715d-c8bc-44e6-85b5-f15614555fab</parentGroupId>
      <backPressureDataSizeThreshold>0 MB</backPressureDataSizeThreshold>
      <backPressureObjectThreshold>0</backPressureObjectThreshold>
      <destination>
        <groupId>e9a7715d-c8bc-44e6-85b5-f15614555fab</groupId>
        <id>85a21678-d59d-4349-ac3b-89da44aac9c6</id>
        <type>PROCESSOR</type>
      </destination>
      <flowFileExpiration>0 sec</flowFileExpiration>
      <labelIndex>1</labelIndex>
      <name></name>
      <selectedRelationships>merged</selectedRelationships>
      <source>
        <groupId>e9a7715d-c8bc-44e6-85b5-f15614555fab</groupId>
        <id>7522fe7f-6caa-49ab-b4d1-649ed702ba5d</id>
        <type>PROCESSOR</type>
      </source>
      <zIndex>0</zIndex>
    </connections>
    <connections>
      <id>c94d27fb-3906-453e-8ffd-02d3b37b2c0f</id>
      <parentGroupId>e9a7715d-c8bc-44e6-85b5-f15614555fab</parentGroupId>
      <backPressureDataSizeThreshold>0 MB</backPressureDataSizeThreshold>
      <backPressureObjectThreshold>0</backPressureObjectThreshold>
      <destination>
        <groupId>e9a7715d-c8bc-44e6-85b5-f15614555fab</groupId>
        <id>c789699f-0a7b-49b4-a71b-59911f9184c7</id>
        <type>OUTPUT_PORT</type>
      </destination>
      <flowFileExpiration>0 sec</flowFileExpiration>
      <labelIndex>1</labelIndex>
      <name></name>
      <selectedRelationships>original</selectedRelationships>
      <source>
        <groupId>e9a7715d-c8bc-44e6-85b5-f15614555fab</groupId>
        <id>7522fe7f-6caa-49ab-b4d1-649ed702ba5d</id>
        <type>PROCESSOR</type>
      </source>
      <zIndex>0</zIndex>
    </connections>
    <connections>
      <id>0da1b7db-ed26-4b33-98de-c30f386a433a</id>
      <parentGroupId>e9a7715d-c8bc-44e6-85b5-f15614555fab</parentGroupId>
      <backPressureDataSizeThreshold>0 MB</backPressureDataSizeThreshold>
      <backPressureObjectThreshold>0</backPressureObjectThreshold>
      <destination>
        <groupId>e9a7715d-c8bc-44e6-85b5-f15614555fab</groupId>
        <id>416b7ac2-2688-4ed6-8437-b171d7e3aefe</id>
        <type>PROCESSOR</type>
      </destination>
      <flowFileExpiration>0 sec</flowFileExpiration>
      <labelIndex>1</labelIndex>
      <name></name>
      <selectedRelationships>success</selectedRelationships>
      <source>
        <groupId>e9a7715d-c8bc-44e6-85b5-f15614555fab</groupId>
        <id>dcfdc9a4-a99f-4cb0-9950-09a2c8143d44</id>
        <type>PROCESSOR</type>
      </source>
      <zIndex>0</zIndex>
    </connections>
    <connections>
      <id>64ac4c07-978d-4be5-9431-f288b51ed00c</id>
      <parentGroupId>e9a7715d-c8bc-44e6-85b5-f15614555fab</parentGroupId>
      <backPressureDataSizeThreshold>0 MB</backPressureDataSizeThreshold>
      <backPressureObjectThreshold>0</backPressureObjectThreshold>
      <destination>
        <groupId>e9a7715d-c8bc-44e6-85b5-f15614555fab</groupId>
        <id>20d09ed1-d671-4de4-a0be-93fe2c1566ca</id>
        <type>OUTPUT_PORT</type>
      </destination>
      <flowFileExpiration>0 sec</flowFileExpiration>
      <labelIndex>1</labelIndex>
      <name></name>
      <selectedRelationships>success</selectedRelationships>
      <source>
        <groupId>e9a7715d-c8bc-44e6-85b5-f15614555fab</groupId>
        <id>85a21678-d59d-4349-ac3b-89da44aac9c6</id>
        <type>PROCESSOR</type>
      </source>
      <zIndex>0</zIndex>
    </connections>
    <connections>
      <id>678284a1-80c0-4a0e-b77c-8187e3399c14</id>
      <parentGroupId>e9a7715d-c8bc-44e6-85b5-f15614555fab</parentGroupId>
      <backPressureDataSizeThreshold>0 MB</backPressureDataSizeThreshold>
      <backPressureObjectThreshold>0</backPressureObjectThreshold>
      <destination>
        <groupId>e9a7715d-c8bc-44e6-85b5-f15614555fab</groupId>
        <id>d2b2e8f8-b57a-4a45-8554-fad6267a6b97</id>
        <type>PROCESSOR</type>
      </destination>
      <flowFileExpiration>0 sec</flowFileExpiration>
      <labelIndex>1</labelIndex>
      <name></name>
      <selectedRelationships>success</selectedRelationships>
      <source>
        <groupId>e9a7715d-c8bc-44e6-85b5-f15614555fab</groupId>
        <id>416b7ac2-2688-4ed6-8437-b171d7e3aefe</id>
        <type>PROCESSOR</type>
      </source>
      <zIndex>0</zIndex>
    </connections>
    <connections>
      <id>69b928d6-b8c1-4f42-ba95-a71c90d996a6</id>
      <parentGroupId>e9a7715d-c8bc-44e6-85b5-f15614555fab</parentGroupId>
      <backPressureDataSizeThreshold>0 MB</backPressureDataSizeThreshold>
      <backPressureObjectThreshold>0</backPressureObjectThreshold>
      <destination>
        <groupId>e9a7715d-c8bc-44e6-85b5-f15614555fab</groupId>
        <id>2d4dbeb6-2b49-4d74-b8d7-bcaf56704724</id>
        <type>OUTPUT_PORT</type>
      </destination>
      <flowFileExpiration>0 sec</flowFileExpiration>
      <labelIndex>1</labelIndex>
      <name></name>
      <selectedRelationships>failure</selectedRelationships>
      <source>
        <groupId>e9a7715d-c8bc-44e6-85b5-f15614555fab</groupId>
        <id>d2b2e8f8-b57a-4a45-8554-fad6267a6b97</id>
        <type>PROCESSOR</type>
      </source>
      <zIndex>0</zIndex>
    </connections>
    <connections>
      <id>d0db316d-4791-43b0-81ca-235c3792660b</id>
      <parentGroupId>e9a7715d-c8bc-44e6-85b5-f15614555fab</parentGroupId>
      <backPressureDataSizeThreshold>0 MB</backPressureDataSizeThreshold>
      <backPressureObjectThreshold>0</backPressureObjectThreshold>
      <destination>
        <groupId>e9a7715d-c8bc-44e6-85b5-f15614555fab</groupId>
        <id>2d4dbeb6-2b49-4d74-b8d7-bcaf56704724</id>
        <type>OUTPUT_PORT</type>
      </destination>
      <flowFileExpiration>0 sec</flowFileExpiration>
      <labelIndex>1</labelIndex>
      <name></name>
      <selectedRelationships>failure</selectedRelationships>
      <source>
        <groupId>e9a7715d-c8bc-44e6-85b5-f15614555fab</groupId>
        <id>7522fe7f-6caa-49ab-b4d1-649ed702ba5d</id>
        <type>PROCESSOR</type>
      </source>
      <zIndex>0</zIndex>
    </connections>
    <connections>
      <id>af3a11cb-45c7-4e10-9b41-3905fc64ecac</id>
      <parentGroupId>e9a7715d-c8bc-44e6-85b5-f15614555fab</parentGroupId>
      <backPressureDataSizeThreshold>0 MB</backPressureDataSizeThreshold>
      <backPressureObjectThreshold>0</backPressureObjectThreshold>
      <destination>
        <groupId>e9a7715d-c8bc-44e6-85b5-f15614555fab</groupId>
        <id>416b7ac2-2688-4ed6-8437-b171d7e3aefe</id>
        <type>PROCESSOR</type>
      </destination>
      <flowFileExpiration>0 sec</flowFileExpiration>
      <labelIndex>1</labelIndex>
      <name></name>
      <selectedRelationships>success</selectedRelationships>
      <source>
        <groupId>e9a7715d-c8bc-44e6-85b5-f15614555fab</groupId>
        <id>910151c3-6cd7-47eb-ad20-45dd95d075d2</id>
        <type>PROCESSOR</type>
      </source>
      <zIndex>0</zIndex>
    </connections>
    <connections>
      <id>0159be72-9e40-44ca-8540-799bfe555534</id>
      <parentGroupId>e9a7715d-c8bc-44e6-85b5-f15614555fab</parentGroupId>
      <backPressureDataSizeThreshold>0 MB</backPressureDataSizeThreshold>
      <backPressureObjectThreshold>0</backPressureObjectThreshold>
      <destination>
        <groupId>e9a7715d-c8bc-44e6-85b5-f15614555fab</groupId>
        <id>7522fe7f-6caa-49ab-b4d1-649ed702ba5d</id>
        <type>PROCESSOR</type>
      </destination>
      <flowFileExpiration>0 sec</flowFileExpiration>
      <labelIndex>1</labelIndex>
      <name></name>
      <selectedRelationships>content</selectedRelationships>
      <source>
        <groupId>e9a7715d-c8bc-44e6-85b5-f15614555fab</groupId>
        <id>d2b2e8f8-b57a-4a45-8554-fad6267a6b97</id>
        <type>PROCESSOR</type>
      </source>
      <zIndex>0</zIndex>
    </connections>
    <controllerServices>
      <id>81fddaec-dc28-45ac-9a1a-0499f67f02d8</id>
      <comments></comments>
      <descriptors>
        <entry>
          <key>Spring Context Service</key>
          <value>
            <allowableValues>
              <displayName>SpringContextLoaderService</displayName>
              <value>002bfd3c-3d3c-4a31-b81d-e9a3740dc844</value>
            </allowableValues>
            <description>Service for loading a Spring context and providing bean lookup.</description>
            <displayName>Spring Context Service</displayName>
            <dynamic>false</dynamic>
            <identifiesControllerService>com.thinkbiganalytics.nifi.core.api.spring.SpringContextService</identifiesControllerService>
            <name>Spring Context Service</name>
            <required>true</required>
            <sensitive>false</sensitive>
            <supportsEl>false</supportsEl>
          </value>
        </entry>
      </descriptors>
      <name>Think Big Cleanup Service</name>
      <properties>
        <entry>
          <key>Spring Context Service</key>
          <value>002bfd3c-3d3c-4a31-b81d-e9a3740dc844</value>
        </entry>
      </properties>
      <referencingComponents>
        <activeThreadCount>0</activeThreadCount>
        <descriptors>
          <entry>
            <key>Metadata Provider Service</key>
            <value>
              <allowableValues>
                <displayName>Think Big Metadata Service</displayName>
                <value>30c2c746-ad7d-457f-a0f9-a9ecf18fd2a6</value>
              </allowableValues>
              <description>Service supplying the implementations of the various metadata providers.</description>
              <displayName>Metadata Provider Service</displayName>
              <dynamic>false</dynamic>
              <identifiesControllerService>com.thinkbiganalytics.nifi.core.api.metadata.MetadataProviderService</identifiesControllerService>
              <name>Metadata Provider Service</name>
              <required>true</required>
              <sensitive>false</sensitive>
              <supportsEl>false</supportsEl>
            </value>
          </entry>
          <entry>
            <key>System feed category</key>
            <value>
              <defaultValue>${metadata.category.systemName}</defaultValue>
              <description>The category name of this feed. The default is to have this name automatically set when the feed is created. Normally you do not need to change the default value.
              </description>
              <displayName>System feed category</displayName>
              <dynamic>false</dynamic>
              <name>System feed category</name>
              <required>true</required>
              <sensitive>false</sensitive>
              <supportsEl>false</supportsEl>
            </value>
          </entry>
          <entry>
            <key>Feed Cleanup Event Service</key>
            <value>
              <allowableValues>
                <displayName>Think Big Cleanup Service</displayName>
                <value>81fddaec-dc28-45ac-9a1a-0499f67f02d8</value>
              </allowableValues>
              <description>Service that manages the cleanup of feeds.</description>
              <displayName>Feed Cleanup Event Service</displayName>
              <dynamic>false</dynamic>
              <identifiesControllerService>com.thinkbiganalytics.nifi.core.api.cleanup.CleanupEventService</identifiesControllerService>
              <name>Feed Cleanup Event Service</name>
              <required>true</required>
              <sensitive>false</sensitive>
              <supportsEl>false</supportsEl>
            </value>
          </entry>
          <entry>
            <key>System feed name</key>
            <value>
              <defaultValue>${metadata.systemFeedName}</defaultValue>
              <description>The system name of this feed. The default is to have this name automatically set when the feed is created. Normally you do not need to change the default value.
              </description>
              <displayName>System feed name</displayName>
              <dynamic>false</dynamic>
              <name>System feed name</name>
              <required>true</required>
              <sensitive>false</sensitive>
              <supportsEl>false</supportsEl>
            </value>
          </entry>
        </descriptors>
        <groupId>d6ce6dd0-826e-477b-b771-0608b2cca1ff</groupId>
        <id>5359828b-f7f1-4959-92ae-383ccdae71bf</id>
        <name>TriggerCleanup</name>
        <properties>
          <entry>
            <key>Metadata Provider Service</key>
            <value>30c2c746-ad7d-457f-a0f9-a9ecf18fd2a6</value>
          </entry>
          <entry>
            <key>System feed category</key>
            <value>aviation</value>
          </entry>
          <entry>
            <key>Feed Cleanup Event Service</key>
            <value>81fddaec-dc28-45ac-9a1a-0499f67f02d8</value>
          </entry>
          <entry>
            <key>System feed name</key>
            <value>city_market</value>
          </entry>
        </properties>
        <referenceType>Processor</referenceType>
        <state>DISABLED</state>
        <type>com.thinkbiganalytics.nifi.v2.metadata.TriggerCleanup</type>
      </referencingComponents>
      <referencingComponents>
        <activeThreadCount>0</activeThreadCount>
        <descriptors>
          <entry>
            <key>Metadata Provider Service</key>
            <value>
              <allowableValues>
                <displayName>Think Big Metadata Service</displayName>
                <value>30c2c746-ad7d-457f-a0f9-a9ecf18fd2a6</value>
              </allowableValues>
              <description>Service supplying the implementations of the various metadata providers.</description>
              <displayName>Metadata Provider Service</displayName>
              <dynamic>false</dynamic>
              <identifiesControllerService>com.thinkbiganalytics.nifi.core.api.metadata.MetadataProviderService</identifiesControllerService>
              <name>Metadata Provider Service</name>
              <required>true</required>
              <sensitive>false</sensitive>
              <supportsEl>false</supportsEl>
            </value>
          </entry>
          <entry>
            <key>System feed category</key>
            <value>
              <defaultValue>${metadata.category.systemName}</defaultValue>
              <description>The category name of this feed. The default is to have this name automatically set when the feed is created. Normally you do not need to change the default value.
              </description>
              <displayName>System feed category</displayName>
              <dynamic>false</dynamic>
              <name>System feed category</name>
              <required>true</required>
              <sensitive>false</sensitive>
              <supportsEl>false</supportsEl>
            </value>
          </entry>
          <entry>
            <key>Feed Cleanup Event Service</key>
            <value>
              <allowableValues>
                <displayName>Think Big Cleanup Service</displayName>
                <value>81fddaec-dc28-45ac-9a1a-0499f67f02d8</value>
              </allowableValues>
              <description>Service that manages the cleanup of feeds.</description>
              <displayName>Feed Cleanup Event Service</displayName>
              <dynamic>false</dynamic>
              <identifiesControllerService>com.thinkbiganalytics.nifi.core.api.cleanup.CleanupEventService</identifiesControllerService>
              <name>Feed Cleanup Event Service</name>
              <required>true</required>
              <sensitive>false</sensitive>
              <supportsEl>false</supportsEl>
            </value>
          </entry>
          <entry>
            <key>System feed name</key>
            <value>
              <defaultValue>${metadata.systemFeedName}</defaultValue>
              <description>The system name of this feed. The default is to have this name automatically set when the feed is created. Normally you do not need to change the default value.
              </description>
              <displayName>System feed name</displayName>
              <dynamic>false</dynamic>
              <name>System feed name</name>
              <required>true</required>
              <sensitive>false</sensitive>
              <supportsEl>false</supportsEl>
            </value>
          </entry>
        </descriptors>
        <groupId>69986c40-98d6-45af-b18e-291ad8105cea</groupId>
        <id>a2f70622-a119-4c92-a2ae-d829d0b53913</id>
        <name>TriggerCleanup</name>
        <properties>
          <entry>
            <key>Metadata Provider Service</key>
            <value>30c2c746-ad7d-457f-a0f9-a9ecf18fd2a6</value>
          </entry>
          <entry>
            <key>System feed category</key>
            <value>users</value>
          </entry>
          <entry>
            <key>Feed Cleanup Event Service</key>
            <value>81fddaec-dc28-45ac-9a1a-0499f67f02d8</value>
          </entry>
          <entry>
            <key>System feed name</key>
            <value>user_data</value>
          </entry>
        </properties>
        <referenceType>Processor</referenceType>
        <state>DISABLED</state>
        <type>com.thinkbiganalytics.nifi.v2.metadata.TriggerCleanup</type>
      </referencingComponents>
      <referencingComponents>
        <activeThreadCount>0</activeThreadCount>
        <descriptors>
          <entry>
            <key>Metadata Provider Service</key>
            <value>
              <allowableValues>
                <displayName>Think Big Metadata Service</displayName>
                <value>30c2c746-ad7d-457f-a0f9-a9ecf18fd2a6</value>
              </allowableValues>
              <description>Service supplying the implementations of the various metadata providers.</description>
              <displayName>Metadata Provider Service</displayName>
              <dynamic>false</dynamic>
              <identifiesControllerService>com.thinkbiganalytics.nifi.core.api.metadata.MetadataProviderService</identifiesControllerService>
              <name>Metadata Provider Service</name>
              <required>true</required>
              <sensitive>false</sensitive>
              <supportsEl>false</supportsEl>
            </value>
          </entry>
          <entry>
            <key>System feed category</key>
            <value>
              <defaultValue>${metadata.category.systemName}</defaultValue>
              <description>The category name of this feed. The default is to have this name automatically set when the feed is created. Normally you do not need to change the default value.
              </description>
              <displayName>System feed category</displayName>
              <dynamic>false</dynamic>
              <name>System feed category</name>
              <required>true</required>
              <sensitive>false</sensitive>
              <supportsEl>false</supportsEl>
            </value>
          </entry>
          <entry>
            <key>Feed Cleanup Event Service</key>
            <value>
              <allowableValues>
                <displayName>Think Big Cleanup Service</displayName>
                <value>81fddaec-dc28-45ac-9a1a-0499f67f02d8</value>
              </allowableValues>
              <description>Service that manages the cleanup of feeds.</description>
              <displayName>Feed Cleanup Event Service</displayName>
              <dynamic>false</dynamic>
              <identifiesControllerService>com.thinkbiganalytics.nifi.core.api.cleanup.CleanupEventService</identifiesControllerService>
              <name>Feed Cleanup Event Service</name>
              <required>true</required>
              <sensitive>false</sensitive>
              <supportsEl>false</supportsEl>
            </value>
          </entry>
          <entry>
            <key>System feed name</key>
            <value>
              <defaultValue>${metadata.systemFeedName}</defaultValue>
              <description>The system name of this feed. The default is to have this name automatically set when the feed is created. Normally you do not need to change the default value.
              </description>
              <displayName>System feed name</displayName>
              <dynamic>false</dynamic>
              <name>System feed name</name>
              <required>true</required>
              <sensitive>false</sensitive>
              <supportsEl>false</supportsEl>
            </value>
          </entry>
        </descriptors>
        <groupId>e677c284-8334-4fa4-96af-c2f0628fd75e</groupId>
        <id>48f216f6-5e8d-4e2e-94e1-7743494aa47b</id>
        <name>TriggerCleanup</name>
        <properties>
          <entry>
            <key>Metadata Provider Service</key>
            <value>30c2c746-ad7d-457f-a0f9-a9ecf18fd2a6</value>
          </entry>
          <entry>
            <key>System feed category</key>
            <value>online_data</value>
          </entry>
          <entry>
            <key>Feed Cleanup Event Service</key>
            <value>81fddaec-dc28-45ac-9a1a-0499f67f02d8</value>
          </entry>
          <entry>
            <key>System feed name</key>
            <value>events_by_city</value>
          </entry>
        </properties>
        <referenceType>Processor</referenceType>
        <state>DISABLED</state>
        <type>com.thinkbiganalytics.nifi.v2.metadata.TriggerCleanup</type>
      </referencingComponents>
      <referencingComponents>
        <activeThreadCount>0</activeThreadCount>
        <descriptors>
          <entry>
            <key>Metadata Provider Service</key>
            <value>
              <allowableValues>
                <displayName>Think Big Metadata Service</displayName>
                <value>30c2c746-ad7d-457f-a0f9-a9ecf18fd2a6</value>
              </allowableValues>
              <description>Service supplying the implementations of the various metadata providers.</description>
              <displayName>Metadata Provider Service</displayName>
              <dynamic>false</dynamic>
              <identifiesControllerService>com.thinkbiganalytics.nifi.core.api.metadata.MetadataProviderService</identifiesControllerService>
              <name>Metadata Provider Service</name>
              <required>true</required>
              <sensitive>false</sensitive>
              <supportsEl>false</supportsEl>
            </value>
          </entry>
          <entry>
            <key>System feed category</key>
            <value>
              <defaultValue>${metadata.category.systemName}</defaultValue>
              <description>The category name of this feed. The default is to have this name automatically set when the feed is created. Normally you do not need to change the default value.
              </description>
              <displayName>System feed category</displayName>
              <dynamic>false</dynamic>
              <name>System feed category</name>
              <required>true</required>
              <sensitive>false</sensitive>
              <supportsEl>false</supportsEl>
            </value>
          </entry>
          <entry>
            <key>Feed Cleanup Event Service</key>
            <value>
              <allowableValues>
                <displayName>Think Big Cleanup Service</displayName>
                <value>81fddaec-dc28-45ac-9a1a-0499f67f02d8</value>
              </allowableValues>
              <description>Service that manages the cleanup of feeds.</description>
              <displayName>Feed Cleanup Event Service</displayName>
              <dynamic>false</dynamic>
              <identifiesControllerService>com.thinkbiganalytics.nifi.core.api.cleanup.CleanupEventService</identifiesControllerService>
              <name>Feed Cleanup Event Service</name>
              <required>true</required>
              <sensitive>false</sensitive>
              <supportsEl>false</supportsEl>
            </value>
          </entry>
          <entry>
            <key>System feed name</key>
            <value>
              <defaultValue>${metadata.systemFeedName}</defaultValue>
              <description>The system name of this feed. The default is to have this name automatically set when the feed is created. Normally you do not need to change the default value.
              </description>
              <displayName>System feed name</displayName>
              <dynamic>false</dynamic>
              <name>System feed name</name>
              <required>true</required>
              <sensitive>false</sensitive>
              <supportsEl>false</supportsEl>
            </value>
          </entry>
        </descriptors>
        <groupId>440397c3-1172-4293-b7be-affca152453d</groupId>
        <id>e07481bd-05e3-41a3-9826-de1bb1f8aff0</id>
        <name>TriggerCleanup</name>
        <properties>
          <entry>
            <key>Metadata Provider Service</key>
            <value>30c2c746-ad7d-457f-a0f9-a9ecf18fd2a6</value>
          </entry>
          <entry>
            <key>System feed category</key>
            <value>customers</value>
          </entry>
          <entry>
            <key>Feed Cleanup Event Service</key>
            <value>81fddaec-dc28-45ac-9a1a-0499f67f02d8</value>
          </entry>
          <entry>
            <key>System feed name</key>
            <value>customer_registrations</value>
          </entry>
        </properties>
        <referenceType>Processor</referenceType>
        <state>DISABLED</state>
        <type>com.thinkbiganalytics.nifi.v2.metadata.TriggerCleanup</type>
      </referencingComponents>
      <referencingComponents>
        <activeThreadCount>0</activeThreadCount>
        <descriptors>
          <entry>
            <key>Metadata Provider Service</key>
            <value>
              <allowableValues>
                <displayName>Think Big Metadata Service</displayName>
                <value>30c2c746-ad7d-457f-a0f9-a9ecf18fd2a6</value>
              </allowableValues>
              <description>Service supplying the implementations of the various metadata providers.</description>
              <displayName>Metadata Provider Service</displayName>
              <dynamic>false</dynamic>
              <identifiesControllerService>com.thinkbiganalytics.nifi.core.api.metadata.MetadataProviderService</identifiesControllerService>
              <name>Metadata Provider Service</name>
              <required>true</required>
              <sensitive>false</sensitive>
              <supportsEl>false</supportsEl>
            </value>
          </entry>
          <entry>
            <key>System feed category</key>
            <value>
              <defaultValue>${metadata.category.systemName}</defaultValue>
              <description>The category name of this feed. The default is to have this name automatically set when the feed is created. Normally you do not need to change the default value.
              </description>
              <displayName>System feed category</displayName>
              <dynamic>false</dynamic>
              <name>System feed category</name>
              <required>true</required>
              <sensitive>false</sensitive>
              <supportsEl>false</supportsEl>
            </value>
          </entry>
          <entry>
            <key>Feed Cleanup Event Service</key>
            <value>
              <allowableValues>
                <displayName>Think Big Cleanup Service</displayName>
                <value>81fddaec-dc28-45ac-9a1a-0499f67f02d8</value>
              </allowableValues>
              <description>Service that manages the cleanup of feeds.</description>
              <displayName>Feed Cleanup Event Service</displayName>
              <dynamic>false</dynamic>
              <identifiesControllerService>com.thinkbiganalytics.nifi.core.api.cleanup.CleanupEventService</identifiesControllerService>
              <name>Feed Cleanup Event Service</name>
              <required>true</required>
              <sensitive>false</sensitive>
              <supportsEl>false</supportsEl>
            </value>
          </entry>
          <entry>
            <key>System feed name</key>
            <value>
              <defaultValue>${metadata.systemFeedName}</defaultValue>
              <description>The system name of this feed. The default is to have this name automatically set when the feed is created. Normally you do not need to change the default value.
              </description>
              <displayName>System feed name</displayName>
              <dynamic>false</dynamic>
              <name>System feed name</name>
              <required>true</required>
              <sensitive>false</sensitive>
              <supportsEl>false</supportsEl>
            </value>
          </entry>
        </descriptors>
        <groupId>acc8c36b-f38d-4bb4-b9fe-680a68d12b95</groupId>
        <id>c3fa7af3-85ed-4489-95a8-f8fc5bc0dd26</id>
        <name>TriggerCleanup</name>
        <properties>
          <entry>
            <key>Metadata Provider Service</key>