<?xml version="1.0" encoding="UTF-8" standalone="yes"?><template><description></description><name>Data Ingest</name><snippet><connections><id>63621869-df16-490c-b85c-b06420b3e4e5</id><parentGroupId>64707c29-5596-4a33-9489-9379989fbbb0</parentGroupId><backPressureDataSizeThreshold>0 MB</backPressureDataSizeThreshold><backPressureObjectThreshold>0</backPressureObjectThreshold><destination><groupId>64707c29-5596-4a33-9489-9379989fbbb0</groupId><id>d956c6b7-5124-4801-a42f-31ed39049358</id><type>PROCESSOR</type></destination><flowFileExpiration>0 sec</flowFileExpiration><labelIndex>1</labelIndex><name></name><selectedRelationships>success</selectedRelationships><source><groupId>64707c29-5596-4a33-9489-9379989fbbb0</groupId><id>b1813d6a-a7b2-4912-8b2e-4d596168358c</id><type>PROCESSOR</type></source><zIndex>0</zIndex></connections><connections><id>c79bf474-87e4-4a0e-a317-2b4d7a1c5f9d</id><parentGroupId>64707c29-5596-4a33-9489-9379989fbbb0</parentGroupId><backPressureDataSizeThreshold>0 MB</backPressureDataSizeThreshold><backPressureObjectThreshold>0</backPressureObjectThreshold><destination><groupId>64707c29-5596-4a33-9489-9379989fbbb0</groupId><id>e967b5a1-72e3-494e-bdbc-3624792980c0</id><type>OUTPUT_PORT</type></destination><flowFileExpiration>0 sec</flowFileExpiration><labelIndex>1</labelIndex><name></name><selectedRelationships>success</selectedRelationships><source><groupId>64707c29-5596-4a33-9489-9379989fbbb0</groupId><id>1e22fa36-0b43-40b2-b42c-4cece64ae170</id><type>PROCESSOR</type></source><zIndex>0</zIndex></connections><connections><id>1ed9056f-58e3-4e91-9f01-1c5cab00ab2b</id><parentGroupId>64707c29-5596-4a33-9489-9379989fbbb0</parentGroupId><backPressureDataSizeThreshold>0 MB</backPressureDataSizeThreshold><backPressureObjectThreshold>0</backPressureObjectThreshold><destination><groupId>64707c29-5596-4a33-9489-9379989fbbb0</groupId><id>9c03313b-9896-4c46-b627-4e9beb76ad78</id><type>OUTPUT_PORT</type></destination><flowFileExpiration>0 sec</flowFileExpiration><labelIndex>1</labelIndex><name></name><selectedRelationships>Success</selectedRelationships><source><groupId>64707c29-5596-4a33-9489-9379989fbbb0</groupId><id>77f5b229-2224-4175-a0c7-1217b29cf776</id><type>PROCESSOR</type></source><zIndex>0</zIndex></connections><connections><id>b60bf40c-f002-442e-8ae7-58bb8fda09f4</id><parentGroupId>64707c29-5596-4a33-9489-9379989fbbb0</parentGroupId><backPressureDataSizeThreshold>0 MB</backPressureDataSizeThreshold><backPressureObjectThreshold>0</backPressureObjectThreshold><destination><groupId>64707c29-5596-4a33-9489-9379989fbbb0</groupId><id>1e22fa36-0b43-40b2-b42c-4cece64ae170</id><type>PROCESSOR</type></destination><flowFileExpiration>0 sec</flowFileExpiration><labelIndex>1</labelIndex><name></name><selectedRelationships>merged</selectedRelationships><source><groupId>64707c29-5596-4a33-9489-9379989fbbb0</groupId><id>88c09a6a-0cd0-4ddb-8ffc-b1248be535c9</id><type>PROCESSOR</type></source><zIndex>0</zIndex></connections><connections><id>b3dfaaa4-c38a-4e30-8d18-4388cd3a02d1</id><parentGroupId>64707c29-5596-4a33-9489-9379989fbbb0</parentGroupId><backPressureDataSizeThreshold>0 MB</backPressureDataSizeThreshold><backPressureObjectThreshold>0</backPressureObjectThreshold><destination><groupId>64707c29-5596-4a33-9489-9379989fbbb0</groupId><id>ab65b16f-d031-4b0a-95f1-5507227abdc6</id><type>OUTPUT_PORT</type></destination><flowFileExpiration>0 sec</flowFileExpiration><labelIndex>1</labelIndex><name></name><selectedRelationships>failure</selectedRelationships><source><groupId>64707c29-5596-4a33-9489-9379989fbbb0</groupId><id>88c09a6a-0cd0-4ddb-8ffc-b1248be535c9</id><type>PROCESSOR</type></source><zIndex>0</zIndex></connections><connections><id>4b0bbcfd-569a-43e8-a443-20a3f53455d6</id><parentGroupId>64707c29-5596-4a33-9489-9379989fbbb0</parentGroupId><backPressureDataSizeThreshold>0 MB</backPressureDataSizeThreshold><backPressureObjectThreshold>0</backPressureObjectThreshold><destination><groupId>64707c29-5596-4a33-9489-9379989fbbb0</groupId><id>d956c6b7-5124-4801-a42f-31ed39049358</id><type>PROCESSOR</type></destination><flowFileExpiration>0 sec</flowFileExpiration><labelIndex>1</labelIndex><name></name><selectedRelationships>success</selectedRelationships><source><groupId>64707c29-5596-4a33-9489-9379989fbbb0</groupId><id>ac823564-91a3-46f4-8078-5de7b63d7350</id><type>PROCESSOR</type></source><zIndex>0</zIndex></connections><connections><id>eeed1a2f-8169-4f8a-ad70-f68c6ad7293e</id><parentGroupId>64707c29-5596-4a33-9489-9379989fbbb0</parentGroupId><backPressureDataSizeThreshold>0 MB</backPressureDataSizeThreshold><backPressureObjectThreshold>0</backPressureObjectThreshold><destination><groupId>64707c29-5596-4a33-9489-9379989fbbb0</groupId><id>88c09a6a-0cd0-4ddb-8ffc-b1248be535c9</id><type>PROCESSOR</type></destination><flowFileExpiration>0 sec</flowFileExpiration><labelIndex>1</labelIndex><name></name><selectedRelationships>success</selectedRelationships><source><groupId>64707c29-5596-4a33-9489-9379989fbbb0</groupId><id>d956c6b7-5124-4801-a42f-31ed39049358</id><type>PROCESSOR</type></source><zIndex>0</zIndex></connections><connections><id>a976ba4b-59a5-45d4-97aa-e30016074509</id><parentGroupId>64707c29-5596-4a33-9489-9379989fbbb0</parentGroupId><backPressureDataSizeThreshold>0 MB</backPressureDataSizeThreshold><backPressureObjectThreshold>0</backPressureObjectThreshold><destination><groupId>64707c29-5596-4a33-9489-9379989fbbb0</groupId><id>7f98ec34-c7ac-4199-a273-d4d7fb34a921</id><type>OUTPUT_PORT</type></destination><flowFileExpiration>0 sec</flowFileExpiration><labelIndex>1</labelIndex><name></name><selectedRelationships>original</selectedRelationships><source><groupId>64707c29-5596-4a33-9489-9379989fbbb0</groupId><id>88c09a6a-0cd0-4ddb-8ffc-b1248be535c9</id><type>PROCESSOR</type></source><zIndex>0</zIndex></connections><controllerServices><id>c1a3fc39-fe25-45fd-b026-183a4475533f</id><comments></comments><descriptors><entry><key>Database Connection URL</key><value><description>A database connection URL used to connect to a database. May contain database system name, host, port, database name and some parameters. The exact syntax of a database connection URL is specified by your DBMS.</description><displayName>Database Connection URL</displayName><dynamic>false</dynamic><name>Database Connection URL</name><required>true</required><sensitive>false</sensitive><supportsEl>false</supportsEl></value></entry><entry><key>Database Driver Class Name</key><value><description>Database driver class name</description><displayName>Database Driver Class Name</displayName><dynamic>false</dynamic><name>Database Driver Class Name</name><required>true</required><sensitive>false</sensitive><supportsEl>false</supportsEl></value></entry><entry><key>Database Driver Jar Url</key><value><description>Optional database driver jar file path url. For example 'file:///var/tmp/mariadb-java-client-1.1.7.jar'</description><displayName>Database Driver Jar Url</displayName><dynamic>false</dynamic><name>Database Driver Jar Url</name><required>false</required><sensitive>false</sensitive><supportsEl>false</supportsEl></value></entry><entry><key>Database User</key><value><description>Database user name</description><displayName>Database User</displayName><dynamic>false</dynamic><name>Database User</name><required>false</required><sensitive>false</sensitive><supportsEl>false</supportsEl></value></entry><entry><key>Password</key><value><description>The password for the database user</description><displayName>Password</displayName><dynamic>false</dynamic><name>Password</name><required>false</required><sensitive>true</sensitive><supportsEl>false</supportsEl></value></entry><entry><key>Max Wait Time</key><value><defaultValue>500 millis</defaultValue><description>The maximum amount of time that the pool will wait (when there are no available connections)  for a connection to be returned before failing, or -1 to wait indefinitely. </description><displayName>Max Wait Time</displayName><dynamic>false</dynamic><name>Max Wait Time</name><required>true</required><sensitive>false</sensitive><supportsEl>false</supportsEl></value></entry><entry><key>Max Total Connections</key><value><defaultValue>8</defaultValue><description>The maximum number of active connections that can be allocated from this pool at the same time,  or negative for no limit.</description><displayName>Max Total Connections</displayName><dynamic>false</dynamic><name>Max Total Connections</name><required>true</required><sensitive>false</sensitive><supportsEl>false</supportsEl></value></entry></descriptors><name>MySQL</name><properties><entry><key>Database Connection URL</key><value>jdbc:mysql://localhost</value></entry><entry><key>Database Driver Class Name</key><value>com.mysql.jdbc.Driver</value></entry><entry><key>Database Driver Jar Url</key><value>file:///opt/nifi/mysql/mysql-connector-java-5.1.32.jar</value></entry><entry><key>Database User</key><value>nifi</value></entry><entry><key>Password</key></entry><entry><key>Max Wait Time</key><value>500 millis</value></entry><entry><key>Max Total Connections</key><value>8</value></entry></properties><referencingComponents><activeThreadCount>0</activeThreadCount><descriptors><entry><key>Database Connection Pooling Service</key><value><allowableValues><displayName>MySQL</displayName><value>c1a3fc39-fe25-45fd-b026-183a4475533f</value></allowableValues><allowableValues><displayName>Example MySQL Connection Pool</displayName><value>c292e98b-8516-4ea6-9041-aa4c445aa69e</value></allowableValues><description>The Controller Service that is used to obtain connection to database</description><displayName>Database Connection Pooling Service</displayName><dynamic>false</dynamic><identifiesControllerService>org.apache.nifi.dbcp.DBCPService</identifiesControllerService><name>Database Connection Pooling Service</name><required>true</required><sensitive>false</sensitive><supportsEl>false</supportsEl></value></entry><entry><key>SQL select query</key><value><description>SQL select query</description><displayName>SQL select query</displayName><dynamic>false</dynamic><name>SQL select query</name><required>true</required><sensitive>false</sensitive><supportsEl>true</supportsEl></value></entry><entry><key>Max Wait Time</key><value><defaultValue>0 seconds</defaultValue><description>The maximum amount of time allowed for a running SQL select query  , zero means there is no limit. Max time less than 1 second will be equal to zero.</description><displayName>Max Wait Time</displayName><dynamic>false</dynamic><name>Max Wait Time</name><required>true</required><sensitive>false</sensitive><supportsEl>false</supportsEl></value></entry></descriptors><groupId>876ef818-2617-4d17-b659-801dbf914816</groupId><id>30dde5f1-be68-4af4-bbb5-b5f9bcbf2985</id><name>Query Hive Table Metadata</name><properties><entry><key>Database Connection Pooling Service</key><value>c1a3fc39-fe25-45fd-b026-183a4475533f</value></entry><entry><key>SQL select query</key><value>SELECT d.NAME DATABASE_NAME, d.OWNER_NAME OWNER, t.CREATE_TIME, t.TBL_NAME, t.TBL_TYPE,
    c.COLUMN_NAME, c.TYPE_NAME
    FROM hive.COLUMNS_V2 c
    JOIN hive.SDS s on s.CD_ID = c.CD_ID
    JOIN  hive.TBLS t ON s.SD_ID=t.SD_ID
    JOIN  hive.DBS d on d.DB_ID = t.DB_ID
    where d.name = '${category}'and t.tbl_name like '${feed}%';</value></entry><entry><key>Max Wait Time</key><value>0 seconds</value></entry></properties><referenceType>Processor</referenceType><state>RUNNING</state><type>org.apache.nifi.processors.standard.ExecuteSQL</type></referencingComponents><referencingComponents><activeThreadCount>0</activeThreadCount><descriptors><entry><key>Source Database Connection</key><value><allowableValues><displayName>MySQL</displayName><value>c1a3fc39-fe25-45fd-b026-183a4475533f</value></allowableValues><allowableValues><displayName>Example MySQL Connection Pool</displayName><value>c292e98b-8516-4ea6-9041-aa4c445aa69e</value></allowableValues><description>The database where the source table resides</description><displayName>Source Database Connection</displayName><dynamic>false</dynamic><identifiesControllerService>org.apache.nifi.dbcp.DBCPService</identifiesControllerService><name>Source Database Connection</name><required>true</required><sensitive>false</sensitive><supportsEl>false</supportsEl></value></entry><entry><key>Metadata Service</key><value><allowableValues><displayName>Think Big Metadata Service</displayName><value>85bd666c-58b8-4241-8b63-8bc92e8925f4</value></allowableValues><description>Think Big metadata service</description><displayName>Metadata Service</displayName><dynamic>false</dynamic><identifiesControllerService>com.thinkbiganalytics.nifi.core.api.metadata.MetadataProviderService</identifiesControllerService><name>Metadata Service</name><required>true</required><sensitive>false</sensitive><supportsEl>false</supportsEl></value></entry><entry><key>System feed category</key><value><defaultValue>${category}</defaultValue><description>System category of feed this processor supports</description><displayName>System feed category</displayName><dynamic>false</dynamic><name>System feed category</name><required>true</required><sensitive>false</sensitive><supportsEl>true</supportsEl></value></entry><entry><key>System feed name</key><value><defaultValue>${feed}</defaultValue><description>Name of feed this processor supports</description><displayName>System feed name</displayName><dynamic>false</dynamic><name>System feed name</name><required>true</required><sensitive>false</sensitive><supportsEl>true</supportsEl></value></entry><entry><key>Source Table</key><value><defaultValue>${metadata.table.sourceTableSchema.name}</defaultValue><description>Name of table including schema (if applicable)</description><displayName>Source Table</displayName><dynamic>false</dynamic><name>Source Table</name><required>true</required><sensitive>false</sensitive><supportsEl>true</supportsEl></value></entry><entry><key>Source Fields</key><value><defaultValue>${metadata.table.sourceFields}</defaultValue><description>Field names (in order) to read from the source table. ie. the select fields. The format is separated by newline. Inconsistent order will cause corruption of the downstream Hive data.</description><displayName>Source Fields</displayName><dynamic>false</dynamic><name>Source Fields</name><required>true</required><sensitive>false</sensitive><supportsEl>true</supportsEl></value></entry><entry><key>Load Strategy</key><value><allowableValues><displayName>FULL_LOAD</displayName><value>FULL_LOAD</value></allowableValues><allowableValues><displayName>INCREMENTAL</displayName><value>INCREMENTAL</value></allowableValues><defaultValue>FULL_LOAD</defaultValue><description>Whether to load the entire table or perform an incremental extract</description><displayName>Load Strategy</displayName><dynamic>false</dynamic><name>Load Strategy</name><required>true</required><sensitive>false</sensitive><supportsEl>false</supportsEl></value></entry><entry><key>Date Field</key><value><description>Source field containing a modified date for tracking incremental load</description><displayName>Date Field</displayName><dynamic>false</dynamic><name>Date Field</name><required>false</required><sensitive>false</sensitive><supportsEl>true</supportsEl></value></entry><entry><key>Overlap Period</key><value><defaultValue>0 seconds</defaultValue><description>Amount of time to overlap into the last load date to ensure long running transactions missed by previous load weren't missed. Recommended: &gt;0s</description><displayName>Overlap Period</displayName><dynamic>false</dynamic><name>Overlap Period</name><required>false</required><sensitive>false</sensitive><supportsEl>true</supportsEl></value></entry><entry><key>Max Wait Time</key><value><defaultValue>0 seconds</defaultValue><description>The maximum amount of time allowed for a running SQL select query  , zero means there is no limit. Max time less than 1 second will be equal to zero.</description><displayName>Max Wait Time</displayName><dynamic>false</dynamic><name>Max Wait Time</name><required>true</required><sensitive>false</sensitive><supportsEl>false</supportsEl></value></entry><entry><key>Backoff Period</key><value><defaultValue>300 seconds</defaultValue><description>Only records older than the backoff period will be eligible for pickup. This can be used in the ILM use case to define a retention period. Recommended: &gt;5m</description><displayName>Backoff Period</displayName><dynamic>false</dynamic><name>Backoff Period</name><required>true</required><sensitive>false</sensitive><supportsEl>false</supportsEl></value></entry><entry><key>Minimum Time Unit</key><value><allowableValues><displayName>NONE</displayName><value>NONE</value></allowableValues><allowableValues><displayName>HOUR</displayName><value>HOUR</value></allowableValues><allowableValues><displayName>DAY</displayName><value>DAY</value></allowableValues><allowableValues><displayName>WEEK</displayName><value>WEEK</value></allowableValues><allowableValues><displayName>MONTH</displayName><value>MONTH</value></allowableValues><allowableValues><displayName>YEAR</displayName><value>YEAR</value></allowableValues><defaultValue>NONE</defaultValue><description>The minimum unit of data eligible to load. For the ILM case, this would be DAY, WEEK, MONTH, YEAR , zero means there is no limit. Max time less than 1 second will be equal to zero.</description><displayName>Minimum Time Unit</displayName><dynamic>false</dynamic><name>Minimum Time Unit</name><required>true</required><sensitive>false</sensitive><supportsEl>false</supportsEl></value></entry></descriptors><groupId>64707c29-5596-4a33-9489-9379989fbbb0</groupId><id>b1813d6a-a7b2-4912-8b2e-4d596168358c</id><name>Poll database</name><properties><entry><key>Source Database Connection</key><value>c1a3fc39-fe25-45fd-b026-183a4475533f</value></entry><entry><key>Metadata Service</key><value>85bd666c-58b8-4241-8b63-8bc92e8925f4</value></entry><entry><key>System feed category</key><value>${metadata.category.systemName}</value></entry><entry><key>System feed name</key><value>${metadata.systemFeedName}</value></entry><entry><key>Source Table</key><value>${metadata.table.sourceTableSchema.name}</value></entry><entry><key>Source Fields</key><value>${metadata.table.sourceFields}</value></entry><entry><key>Load Strategy</key><value>FULL_LOAD</value></entry><entry><key>Date Field</key></entry><entry><key>Overlap Period</key><value>300 seconds</value></entry><entry><key>Max Wait Time</key><value>0 seconds</value></entry><entry><key>Backoff Period</key><value>300 seconds</value></entry><entry><key>Minimum Time Unit</key><value>NONE</value></entry></properties><referenceType>Processor</referenceType><state>STOPPED</state><type>com.thinkbiganalytics.nifi.v2.ingest.GetTableData</type></referencingComponents><referencingComponents><activeThreadCount>0</activeThreadCount><descriptors><entry><key>Database Connection Pooling Service</key><value><allowableValues><displayName>MySQL</displayName><value>c1a3fc39-fe25-45fd-b026-183a4475533f</value></allowableValues><allowableValues><displayName>Example MySQL Connection Pool</displayName><value>c292e98b-8516-4ea6-9041-aa4c445aa69e</value></allowableValues><description>The Controller Service that is used to obtain connection to database</description><displayName>Database Connection Pooling Service</displayName><dynamic>false</dynamic><identifiesControllerService>org.apache.nifi.dbcp.DBCPService</identifiesControllerService><name>Database Connection Pooling Service</name><required>true</required><sensitive>false</sensitive><supportsEl>false</supportsEl></value></entry><entry><key>SQL select query</key><value><description>SQL select query</description><displayName>SQL select query</displayName><dynamic>false</dynamic><name>SQL select query</name><required>true</required><sensitive>false</sensitive><supportsEl>true</supportsEl></value></entry><entry><key>Max Wait Time</key><value><defaultValue>0 seconds</defaultValue><description>The maximum amount of time allowed for a running SQL select query  , zero means there is no limit. Max time less than 1 second will be equal to zero.</description><displayName>Max Wait Time</displayName><dynamic>false</dynamic><name>Max Wait Time</name><required>true</required><sensitive>false</sensitive><supportsEl>false</supportsEl></value></entry></descriptors><groupId>5b6bfe49-b41f-4acf-bd34-4e5f3a538ed3</groupId><id>2451da7e-df9c-405e-8337-0e460b499d20</id><name>Query Hive Table Metadata</name><properties><entry><key>Database Connection Pooling Service</key><value>c1a3fc39-fe25-45fd-b026-183a4475533f</value></entry><entry><key>SQL select query</key><value>SELECT d.NAME DATABASE_NAME, d.OWNER_NAME OWNER, t.CREATE_TIME, t.TBL_NAME, t.TBL_TYPE,
    c.COLUMN_NAME, c.TYPE_NAME
    FROM hive.COLUMNS_V2 c
    JOIN hive.SDS s on s.CD_ID = c.CD_ID
    JOIN  hive.TBLS t ON s.SD_ID=t.SD_ID
    JOIN  hive.DBS d on d.DB_ID = t.DB_ID
    where d.name = '${category}'and t.tbl_name like '${feed}%';</value></entry><entry><key>Max Wait Time</key><value>0 seconds</value></entry></properties><referenceType>Processor</referenceType><state>STOPPED</state><type>org.apache.nifi.processors.standard.ExecuteSQL</type></referencingComponents><referencingComponents><activeThreadCount>0</activeThreadCount><descriptors><entry><key>Database Connection Pooling Service</key><value><allowableValues><displayName>MySQL</displayName><value>c1a3fc39-fe25-45fd-b026-183a4475533f</value></allowableValues><allowableValues><displayName>Example MySQL Connection Pool</displayName><value>c292e98b-8516-4ea6-9041-aa4c445aa69e</value></allowableValues><description>The Controller Service that is used to obtain connection to database</description><displayName>Database Connection Pooling Service</displayName><dynamic>false</dynamic><identifiesControllerService>org.apache.nifi.dbcp.DBCPService</identifiesControllerService><name>Database Connection Pooling Service</name><required>true</required><sensitive>false</sensitive><supportsEl>false</supportsEl></value></entry><entry><key>SQL select query</key><value><description>SQL select query</description><displayName>SQL select query</displayName><dynamic>false</dynamic><name>SQL select query</name><required>true</required><sensitive>false</sensitive><supportsEl>true</supportsEl></value></entry><entry><key>Max Wait Time</key><value><defaultValue>0 seconds</defaultValue><description>The maximum amount of time allowed for a running SQL select query  , zero means there is no limit. Max time less than 1 second will be equal to zero.</description><displayName>Max Wait Time</displayName><dynamic>false</dynamic><name>Max Wait Time</name><required>true</required><sensitive>false</sensitive><supportsEl>false</supportsEl></value></entry></descriptors><groupId>ec3ce0c6-8643-4435-a4e6-dcc8f378179d</groupId><id>924815cf-4b27-4f4c-b8f1-30929bafee1e</id><name>Query Hive Table Metadata</name><properties><entry><key>Database Connection Pooling Service</key><value>c1a3fc39-fe25-45fd-b026-183a4475533f</value></entry><entry><key>SQL select query</key><value>SELECT d.NAME DATABASE_NAME, d.OWNER_NAME OWNER, t.CREATE_TIME, t.TBL_NAME, t.TBL_TYPE,
    c.COLUMN_NAME, c.TYPE_NAME
    FROM hive.COLUMNS_V2 c
    JOIN hive.SDS s on s.CD_ID = c.CD_ID
    JOIN  hive.TBLS t ON s.SD_ID=t.SD_ID
    JOIN  hive.DBS d on d.DB_ID = t.DB_ID
    where d.name = '${category}'and t.tbl_name like '${feed}%';</value></entry><entry><key>Max Wait Time</key><value>0 seconds</value></entry></properties><referenceType>Processor</referenceType><state>RUNNING</state><type>org.apache.nifi.processors.standard.ExecuteSQL</type></referencingComponents><referencingComponents><activeThreadCount>0</activeThreadCount><descriptors><entry><key>Database Connection Pooling Service</key><value><allowableValues><displayName>MySQL</displayName><value>c1a3fc39-fe25-45fd-b026-183a4475533f</value></allowableValues><allowableValues><displayName>Example MySQL Connection Pool</displayName><value>c292e98b-8516-4ea6-9041-aa4c445aa69e</value></allowableValues><description>The Controller Service that is used to obtain connection to database</description><displayName>Database Connection Pooling Service</displayName><dynamic>false</dynamic><identifiesControllerService>org.apache.nifi.dbcp.DBCPService</identifiesControllerService><name>Database Connection Pooling Service</name><required>true</required><sensitive>false</sensitive><supportsEl>false</supportsEl></value></entry><entry><key>SQL select query</key><value><description>SQL select query</description><displayName>SQL select query</displayName><dynamic>false</dynamic><name>SQL select query</name><required>true</required><sensitive>false</sensitive><supportsEl>true</supportsEl></value></entry><entry><key>Max Wait Time</key><value><defaultValue>0 seconds</defaultValue><description>The maximum amount of time allowed for a running SQL select query  , zero means there is no limit. Max time less than 1 second will be equal to zero.</description><displayName>Max Wait Time</displayName><dynamic>false</dynamic><name>Max Wait Time</name><required>true</required><sensitive>false</sensitive><supportsEl>false</supportsEl></value></entry></descriptors><groupId>3f107a43-69b0-4b27-b714-6c51128b6f2f</groupId><id>3d06e3b3-406c-416c-8fd1-b9f1d3719ab4</id><name>Query Hive Table Metadata</name><properties><entry><key>Database Connection Pooling Service</key><value>c1a3fc39-fe25-45fd-b026-183a4475533f</value></entry><entry><key>SQL select query</key><value> SELECT d.NAME DATABASE_NAME, d.OWNER_NAME OWNER, t.CREATE_TIME, t.TBL_NAME, t.TBL_TYPE,
    c.COLUMN_NAME, c.TYPE_NAME
    FROM ${config.hive.schema}.COLUMNS_V2 c
    JOIN ${config.hive.schema}.SDS s on s.CD_ID = c.CD_ID
    JOIN  ${config.hive.schema}.TBLS t ON s.SD_ID=t.SD_ID
    JOIN  ${config.hive.schema}.DBS d on d.DB_ID = t.DB_ID
    where d.name = '${category}'and t.tbl_name like '${feed}%';</value></entry><entry><key>Max Wait Time</key><value>0 seconds</value></entry></properties><referenceType>Processor</referenceType><state>STOPPED</state><type>org.apache.nifi.processors.standard.ExecuteSQL</type></referencingComponents><referencingComponents><activeThreadCount>0</activeThreadCount><descriptors><entry><key>Database Connection Pooling Service</key><value><allowableValues><displayName>MySQL</displayName><value>c1a3fc39-fe25-45fd-b026-183a4475533f</value></allowableValues><allowableValues><displayName>Example MySQL Connection Pool</displayName><value>c292e98b-8516-4ea6-9041-aa4c445aa69e</value></allowableValues><description>The Controller Service that is used to obtain connection to database</description><displayName>Database Connection Pooling Service</displayName><dynamic>false</dynamic><identifiesControllerService>org.apache.nifi.dbcp.DBCPService</identifiesControllerService><name>Database Connection Pooling Service</name><required>true</required><sensitive>false</sensitive><supportsEl>false</supportsEl></value></entry><entry><key>SQL select query</key><value><description>SQL select query</description><displayName>SQL select query</displayName><dynamic>false</dynamic><name>SQL select query</name><required>true</required><sensitive>false</sensitive><supportsEl>true</supportsEl></value></entry><entry><key>Max Wait Time</key><value><defaultValue>0 seconds</defaultValue><description>The maximum amount of time allowed for a running SQL select query  , zero means there is no limit. Max time less than 1 second will be equal to zero.</description><displayName>Max Wait Time</displayName><dynamic>false</dynamic><name>Max Wait Time</name><required>true</required><sensitive>false</sensitive><supportsEl>false</supportsEl></value></entry></descriptors><groupId>5ff7bd63-77ae-48f0-9cc7-94ef245bc7b2</groupId><id>e018148b-a9e8-41c3-ac84-290461ec8824</id><name>Query Hive Table Metadata</name><properties><entry><key>Database Connection Pooling Service</key><value>c1a3fc39-fe25-45fd-b026-183a4475533f</value></entry><entry><key>SQL select query</key><value>SELECT d.NAME DATABASE_NAME, d.OWNER_NAME OWNER, t.CREATE_TIME, t.TBL_NAME, t.TBL_TYPE,
    c.COLUMN_NAME, c.TYPE_NAME
    FROM hive.COLUMNS_V2 c
    JOIN hive.SDS s on s.CD_ID = c.CD_ID
    JOIN  hive.TBLS t ON s.SD_ID=t.SD_ID
    JOIN  hive.DBS d on d.DB_ID = t.DB_ID