<?xml version="1.0" encoding="UTF-8" standalone="yes"?><template><description></description><name>Data Ingest</name><snippet><connections><id>45c48a9a-b331-4788-a6c9-411ddcc5b7fb</id><parentGroupId>d7c2a337-c207-484b-acf1-bb602249789c</parentGroupId><backPressureDataSizeThreshold>0 MB</backPressureDataSizeThreshold><backPressureObjectThreshold>0</backPressureObjectThreshold><destination><groupId>d7c2a337-c207-484b-acf1-bb602249789c</groupId><id>00413412-7ec1-4a93-a630-eeb10b7cad51</id><type>PROCESSOR</type></destination><flowFileExpiration>0 sec</flowFileExpiration><labelIndex>1</labelIndex><name></name><selectedRelationships>success</selectedRelationships><source><groupId>d7c2a337-c207-484b-acf1-bb602249789c</groupId><id>96336556-9fa9-4d30-95ee-f88670b85239</id><type>PROCESSOR</type></source><zIndex>0</zIndex></connections><connections><id>a4dc77f4-8e6a-48f8-88c0-5f21b9246e0d</id><parentGroupId>d7c2a337-c207-484b-acf1-bb602249789c</parentGroupId><backPressureDataSizeThreshold>0 MB</backPressureDataSizeThreshold><backPressureObjectThreshold>0</backPressureObjectThreshold><destination><groupId>d7c2a337-c207-484b-acf1-bb602249789c</groupId><id>00413412-7ec1-4a93-a630-eeb10b7cad51</id><type>PROCESSOR</type></destination><flowFileExpiration>0 sec</flowFileExpiration><labelIndex>1</labelIndex><name></name><selectedRelationships>success</selectedRelationships><source><groupId>d7c2a337-c207-484b-acf1-bb602249789c</groupId><id>64b00b7c-5d32-416a-8f05-f46a6350db63</id><type>PROCESSOR</type></source><zIndex>0</zIndex></connections><connections><id>72e9f14a-e1b7-4475-b599-a3acd03cd67b</id><parentGroupId>d7c2a337-c207-484b-acf1-bb602249789c</parentGroupId><backPressureDataSizeThreshold>0 MB</backPressureDataSizeThreshold><backPressureObjectThreshold>0</backPressureObjectThreshold><destination><groupId>d7c2a337-c207-484b-acf1-bb602249789c</groupId><id>88e7f721-2deb-4ff9-8abf-e2c08e7effb1</id><type>OUTPUT_PORT</type></destination><flowFileExpiration>0 sec</flowFileExpiration><labelIndex>1</labelIndex><name></name><selectedRelationships>success</selectedRelationships><source><groupId>d7c2a337-c207-484b-acf1-bb602249789c</groupId><id>00413412-7ec1-4a93-a630-eeb10b7cad51</id><type>PROCESSOR</type></source><zIndex>0</zIndex></connections><controllerServices><id>6f7eae61-35a4-4deb-b795-ea9cccb86171</id><comments></comments><descriptors><entry><key>Database Driver Jar Url</key><value><description>Optional database driver jar file path url. For example 'file:///var/tmp/mariadb-java-client-1.1.7.jar'</description><displayName>Database Driver Jar Url</displayName><dynamic>false</dynamic><name>Database Driver Jar Url</name><required>false</required><sensitive>false</sensitive><supportsEl>false</supportsEl></value></entry><entry><key>Database Driver Class Name</key><value><description>Database driver class name</description><displayName>Database Driver Class Name</displayName><dynamic>false</dynamic><name>Database Driver Class Name</name><required>true</required><sensitive>false</sensitive><supportsEl>false</supportsEl></value></entry><entry><key>Password</key><value><description>The password for the database user</description><displayName>Password</displayName><dynamic>false</dynamic><name>Password</name><required>false</required><sensitive>true</sensitive><supportsEl>false</supportsEl></value></entry><entry><key>Max Total Connections</key><value><defaultValue>8</defaultValue><description>The maximum number of active connections that can be allocated from this pool at the same time,  or negative for no limit.</description><displayName>Max Total Connections</displayName><dynamic>false</dynamic><name>Max Total Connections</name><required>true</required><sensitive>false</sensitive><supportsEl>false</supportsEl></value></entry><entry><key>Database Connection URL</key><value><description>A database connection URL used to connect to a database. May contain database system name, host, port, database name and some parameters. The exact syntax of a database connection URL is specified by your DBMS.</description><displayName>Database Connection URL</displayName><dynamic>false</dynamic><name>Database Connection URL</name><required>true</required><sensitive>false</sensitive><supportsEl>false</supportsEl></value></entry><entry><key>Database User</key><value><description>Database user name</description><displayName>Database User</displayName><dynamic>false</dynamic><name>Database User</name><required>false</required><sensitive>false</sensitive><supportsEl>false</supportsEl></value></entry><entry><key>Max Wait Time</key><value><defaultValue>500 millis</defaultValue><description>The maximum amount of time that the pool will wait (when there are no available connections)  for a connection to be returned before failing, or -1 to wait indefinitely. </description><displayName>Max Wait Time</displayName><dynamic>false</dynamic><name>Max Wait Time</name><required>true</required><sensitive>false</sensitive><supportsEl>false</supportsEl></value></entry></descriptors><name>MySQL</name><properties><entry><key>Database Driver Jar Url</key><value>file:///opt/nifi/mysql/mysql-connector-java-5.1.32.jar</value></entry><entry><key>Database Driver Class Name</key><value>com.mysql.jdbc.Driver</value></entry><entry><key>Password</key></entry><entry><key>Max Total Connections</key><value>8</value></entry><entry><key>Database Connection URL</key><value>jdbc:mysql://localhost</value></entry><entry><key>Database User</key><value>nifi</value></entry><entry><key>Max Wait Time</key><value>500 millis</value></entry></properties><referencingComponents><activeThreadCount>0</activeThreadCount><descriptors><entry><key>Date Field</key><value><description>Fieldname of the source field containing the modified date for incremental load</description><displayName>Date Field</displayName><dynamic>false</dynamic><name>Date Field</name><required>false</required><sensitive>false</sensitive><supportsEl>true</supportsEl></value></entry><entry><key>Load Strategy</key><value><allowableValues><displayName>FULL_LOAD</displayName><value>FULL_LOAD</value></allowableValues><allowableValues><displayName>INCREMENTAL</displayName><value>INCREMENTAL</value></allowableValues><defaultValue>FULL_LOAD</defaultValue><description>Whether to load the entire table or perform an incremental extract</description><displayName>Load Strategy</displayName><dynamic>false</dynamic><name>Load Strategy</name><required>true</required><sensitive>false</sensitive><supportsEl>false</supportsEl></value></entry><entry><key>Overlap Period</key><value><defaultValue>0 seconds</defaultValue><description>Amount of time to overlap into the last load date to ensure long running transactions missed by previous load weren't missed. Recommended: &gt;0s</description><displayName>Overlap Period</displayName><dynamic>false</dynamic><name>Overlap Period</name><required>false</required><sensitive>false</sensitive><supportsEl>true</supportsEl></value></entry><entry><key>System feed name</key><value><description>Name of feed this processor supports</description><displayName>System feed name</displayName><dynamic>false</dynamic><name>System feed name</name><required>true</required><sensitive>false</sensitive><supportsEl>true</supportsEl></value></entry><entry><key>Minimum Time Unit</key><value><allowableValues><displayName>NONE</displayName><value>NONE</value></allowableValues><allowableValues><displayName>HOUR</displayName><value>HOUR</value></allowableValues><allowableValues><displayName>DAY</displayName><value>DAY</value></allowableValues><allowableValues><displayName>WEEK</displayName><value>WEEK</value></allowableValues><allowableValues><displayName>MONTH</displayName><value>MONTH</value></allowableValues><allowableValues><displayName>YEAR</displayName><value>YEAR</value></allowableValues><defaultValue>NONE</defaultValue><description>The minimum unit of data eligible to load. For the ILM case, this would be DAY, WEEK, MONTH, YEAR , zero means there is no limit. Max time less than 1 second will be equal to zero.</description><displayName>Minimum Time Unit</displayName><dynamic>false</dynamic><name>Minimum Time Unit</name><required>true</required><sensitive>false</sensitive><supportsEl>false</supportsEl></value></entry><entry><key>Backoff Period</key><value><defaultValue>300 seconds</defaultValue><description>Only records older than the backoff period will be eligible for pickup. This can be used in the ILM use case to define a retention period. Recommended: &gt;5m</description><displayName>Backoff Period</displayName><dynamic>false</dynamic><name>Backoff Period</name><required>true</required><sensitive>false</sensitive><supportsEl>false</supportsEl></value></entry><entry><key>Source Fields</key><value><description>Field names (in order) to read from the source table. ie. the select fields. The format is separated by newline. Inconsistent order will cause corruption of the downstream Hive data.</description><displayName>Source Fields</displayName><dynamic>false</dynamic><name>Source Fields</name><required>true</required><sensitive>false</sensitive><supportsEl>true</supportsEl></value></entry><entry><key>Metadata Service</key><value><allowableValues><displayName>Think Big Metadata Service</displayName><value>345ed517-6b99-4fd2-a437-9898668f00bf</value></allowableValues><description>The Think Big metadata service</description><displayName>Metadata Service</displayName><dynamic>false</dynamic><identifiesControllerService>com.thinkbiganalytics.nifi.core.api.metadata.MetadataProviderService</identifiesControllerService><name>Metadata Service</name><required>true</required><sensitive>false</sensitive><supportsEl>false</supportsEl></value></entry><entry><key>System feed category</key><value><description>System category of feed this processor supports</description><displayName>System feed category</displayName><dynamic>false</dynamic><name>System feed category</name><required>true</required><sensitive>false</sensitive><supportsEl>true</supportsEl></value></entry><entry><key>Max Wait Time</key><value><defaultValue>0 seconds</defaultValue><description>The maximum amount of time allowed for a running SQL select query  , zero means there is no limit. Max time less than 1 second will be equal to zero.</description><displayName>Max Wait Time</displayName><dynamic>false</dynamic><name>Max Wait Time</name><required>true</required><sensitive>false</sensitive><supportsEl>false</supportsEl></value></entry><entry><key>Source Table</key><value><description>Name of table including schema (if applicable)</description><displayName>Source Table</displayName><dynamic>false</dynamic><name>Source Table</name><required>true</required><sensitive>false</sensitive><supportsEl>true</supportsEl></value></entry><entry><key>Source Database Connection</key><value><allowableValues><displayName>MySQL</displayName><value>6f7eae61-35a4-4deb-b795-ea9cccb86171</value></allowableValues><allowableValues><displayName>Example MySQL Connection Pool</displayName><value>d4d85742-1f34-4388-a93f-80ee65e9dd19</value></allowableValues><description>The database where the source table resides</description><displayName>Source Database Connection</displayName><dynamic>false</dynamic><identifiesControllerService>org.apache.nifi.dbcp.DBCPService</identifiesControllerService><name>Source Database Connection</name><required>true</required><sensitive>false</sensitive><supportsEl>false</supportsEl></value></entry></descriptors><groupId>0e327d33-4d68-44bd-aa60-7b498e2f9d2e</groupId><id>f0182e54-0e8c-422c-b941-fabbae0713b5</id><name>Poll database</name><properties><entry><key>Date Field</key></entry><entry><key>Load Strategy</key><value>FULL_LOAD</value></entry><entry><key>Overlap Period</key><value>300 seconds</value></entry><entry><key>System feed name</key><value>${feed}</value></entry><entry><key>Minimum Time Unit</key><value>NONE</value></entry><entry><key>Backoff Period</key><value>300 seconds</value></entry><entry><key>Source Fields</key><value></value></entry><entry><key>Metadata Service</key><value>345ed517-6b99-4fd2-a437-9898668f00bf</value></entry><entry><key>System feed category</key><value>${category}</value></entry><entry><key>Max Wait Time</key><value>0 seconds</value></entry><entry><key>Source Table</key><value>${metadata.table.sourceTableSchema.name}</value></entry><entry><key>Source Database Connection</key><value>6f7eae61-35a4-4deb-b795-ea9cccb86171</value></entry></properties><referenceType>Processor</referenceType><state>DISABLED</state><type>com.thinkbiganalytics.nifi.v2.ingest.GetTableData</type><validationErrors>'Source Fields' validated against '' is invalid because Source Fields cannot be empty</validationErrors></referencingComponents><referencingComponents><activeThreadCount>0</activeThreadCount><descriptors><entry><key>SQL select query</key><value><description>SQL select query</description><displayName>SQL select query</displayName><dynamic>false</dynamic><name>SQL select query</name><required>true</required><sensitive>false</sensitive><supportsEl>true</supportsEl></value></entry><entry><key>Database Connection Pooling Service</key><value><allowableValues><displayName>MySQL</displayName><value>6f7eae61-35a4-4deb-b795-ea9cccb86171</value></allowableValues><allowableValues><displayName>Example MySQL Connection Pool</displayName><value>d4d85742-1f34-4388-a93f-80ee65e9dd19</value></allowableValues><description>The Controller Service that is used to obtain connection to database</description><displayName>Database Connection Pooling Service</displayName><dynamic>false</dynamic><identifiesControllerService>org.apache.nifi.dbcp.DBCPService</identifiesControllerService><name>Database Connection Pooling Service</name><required>true</required><sensitive>false</sensitive><supportsEl>false</supportsEl></value></entry><entry><key>Max Wait Time</key><value><defaultValue>0 seconds</defaultValue><description>The maximum amount of time allowed for a running SQL select query  , zero means there is no limit. Max time less than 1 second will be equal to zero.</description><displayName>Max Wait Time</displayName><dynamic>false</dynamic><name>Max Wait Time</name><required>true</required><sensitive>false</sensitive><supportsEl>false</supportsEl></value></entry></descriptors><groupId>039fdbb0-182c-4351-97d3-2e8a345a1b28</groupId><id>4dda4d40-a074-48de-8714-f0515822adf8</id><name>Query Hive Table Metadata</name><properties><entry><key>SQL select query</key><value>SELECT d.NAME DATABASE_NAME, d.OWNER_NAME OWNER, t.CREATE_TIME, t.TBL_NAME, t.TBL_TYPE, c.COLUMN_NAME, c.TYPE_NAME
FROM hive.COLUMNS_V2 c 
   JOIN hive.TBLS t ON c.CD_ID=t.TBL_ID 
   JOIN hive.DBS d on d.DB_ID = t.DB_ID
where d.name = '${source}'and t.tbl_name like '${entity}%';</value></entry><entry><key>Database Connection Pooling Service</key><value>6f7eae61-35a4-4deb-b795-ea9cccb86171</value></entry><entry><key>Max Wait Time</key><value>0 seconds</value></entry></properties><referenceType>Processor</referenceType><state>RUNNING</state><type>org.apache.nifi.processors.standard.ExecuteSQL</type></referencingComponents><referencingComponents><activeThreadCount>0</activeThreadCount><descriptors><entry><key>Date Field</key><value><description>Fieldname of the source field containing the modified date for incremental load</description><displayName>Date Field</displayName><dynamic>false</dynamic><name>Date Field</name><required>false</required><sensitive>false</sensitive><supportsEl>true</supportsEl></value></entry><entry><key>Load Strategy</key><value><allowableValues><displayName>FULL_LOAD</displayName><value>FULL_LOAD</value></allowableValues><allowableValues><displayName>INCREMENTAL</displayName><value>INCREMENTAL</value></allowableValues><defaultValue>FULL_LOAD</defaultValue><description>Whether to load the entire table or perform an incremental extract</description><displayName>Load Strategy</displayName><dynamic>false</dynamic><name>Load Strategy</name><required>true</required><sensitive>false</sensitive><supportsEl>false</supportsEl></value></entry><entry><key>Overlap Period</key><value><defaultValue>0 seconds</defaultValue><description>Amount of time to overlap into the last load date to ensure long running transactions missed by previous load weren't missed. Recommended: &gt;0s</description><displayName>Overlap Period</displayName><dynamic>false</dynamic><name>Overlap Period</name><required>false</required><sensitive>false</sensitive><supportsEl>true</supportsEl></value></entry><entry><key>System feed name</key><value><description>Name of feed this processor supports</description><displayName>System feed name</displayName><dynamic>false</dynamic><name>System feed name</name><required>true</required><sensitive>false</sensitive><supportsEl>true</supportsEl></value></entry><entry><key>Minimum Time Unit</key><value><allowableValues><displayName>NONE</displayName><value>NONE</value></allowableValues><allowableValues><displayName>HOUR</displayName><value>HOUR</value></allowableValues><allowableValues><displayName>DAY</displayName><value>DAY</value></allowableValues><allowableValues><displayName>WEEK</displayName><value>WEEK</value></allowableValues><allowableValues><displayName>MONTH</displayName><value>MONTH</value></allowableValues><allowableValues><displayName>YEAR</displayName><value>YEAR</value></allowableValues><defaultValue>NONE</defaultValue><description>The minimum unit of data eligible to load. For the ILM case, this would be DAY, WEEK, MONTH, YEAR , zero means there is no limit. Max time less than 1 second will be equal to zero.</description><displayName>Minimum Time Unit</displayName><dynamic>false</dynamic><name>Minimum Time Unit</name><required>true</required><sensitive>false</sensitive><supportsEl>false</supportsEl></value></entry><entry><key>Backoff Period</key><value><defaultValue>300 seconds</defaultValue><description>Only records older than the backoff period will be eligible for pickup. This can be used in the ILM use case to define a retention period. Recommended: &gt;5m</description><displayName>Backoff Period</displayName><dynamic>false</dynamic><name>Backoff Period</name><required>true</required><sensitive>false</sensitive><supportsEl>false</supportsEl></value></entry><entry><key>Source Fields</key><value><description>Field names (in order) to read from the source table. ie. the select fields. The format is separated by newline. Inconsistent order will cause corruption of the downstream Hive data.</description><displayName>Source Fields</displayName><dynamic>false</dynamic><name>Source Fields</name><required>true</required><sensitive>false</sensitive><supportsEl>true</supportsEl></value></entry><entry><key>Metadata Service</key><value><allowableValues><displayName>Think Big Metadata Service</displayName><value>345ed517-6b99-4fd2-a437-9898668f00bf</value></allowableValues><description>The Think Big metadata service</description><displayName>Metadata Service</displayName><dynamic>false</dynamic><identifiesControllerService>com.thinkbiganalytics.nifi.core.api.metadata.MetadataProviderService</identifiesControllerService><name>Metadata Service</name><required>true</required><sensitive>false</sensitive><supportsEl>false</supportsEl></value></entry><entry><key>System feed category</key><value><description>System category of feed this processor supports</description><displayName>System feed category</displayName><dynamic>false</dynamic><name>System feed category</name><required>true</required><sensitive>false</sensitive><supportsEl>true</supportsEl></value></entry><entry><key>Max Wait Time</key><value><defaultValue>0 seconds</defaultValue><description>The maximum amount of time allowed for a running SQL select query  , zero means there is no limit. Max time less than 1 second will be equal to zero.</description><displayName>Max Wait Time</displayName><dynamic>false</dynamic><name>Max Wait Time</name><required>true</required><sensitive>false</sensitive><supportsEl>false</supportsEl></value></entry><entry><key>Source Table</key><value><description>Name of table including schema (if applicable)</description><displayName>Source Table</displayName><dynamic>false</dynamic><name>Source Table</name><required>true</required><sensitive>false</sensitive><supportsEl>true</supportsEl></value></entry><entry><key>Source Database Connection</key><value><allowableValues><displayName>MySQL</displayName><value>6f7eae61-35a4-4deb-b795-ea9cccb86171</value></allowableValues><allowableValues><displayName>Example MySQL Connection Pool</displayName><value>d4d85742-1f34-4388-a93f-80ee65e9dd19</value></allowableValues><description>The database where the source table resides</description><displayName>Source Database Connection</displayName><dynamic>false</dynamic><identifiesControllerService>org.apache.nifi.dbcp.DBCPService</identifiesControllerService><name>Source Database Connection</name><required>true</required><sensitive>false</sensitive><supportsEl>false</supportsEl></value></entry></descriptors><groupId>a4173db3-14aa-4be2-ab77-ce9c58870e45</groupId><id>95285a0e-57b3-4480-977f-7ea556e17848</id><name>Poll database</name><properties><entry><key>Date Field</key></entry><entry><key>Load Strategy</key><value>FULL_LOAD</value></entry><entry><key>Overlap Period</key><value>300 seconds</value></entry><entry><key>System feed name</key><value>${feed}</value></entry><entry><key>Minimum Time Unit</key><value>NONE</value></entry><entry><key>Backoff Period</key><value>300 seconds</value></entry><entry><key>Source Fields</key><value></value></entry><entry><key>Metadata Service</key><value>345ed517-6b99-4fd2-a437-9898668f00bf</value></entry><entry><key>System feed category</key><value>${category}</value></entry><entry><key>Max Wait Time</key><value>0 seconds</value></entry><entry><key>Source Table</key><value>${metadata.table.sourceTableSchema.name}</value></entry><entry><key>Source Database Connection</key><value>6f7eae61-35a4-4deb-b795-ea9cccb86171</value></entry></properties><referenceType>Processor</referenceType><state>DISABLED</state><type>com.thinkbiganalytics.nifi.v2.ingest.GetTableData</type><validationErrors>'Source Fields' validated against '' is invalid because Source Fields cannot be empty</validationErrors></referencingComponents><referencingComponents><activeThreadCount>0</activeThreadCount><descriptors><entry><key>Date Field</key><value><description>Fieldname of the source field containing the modified date for incremental load</description><displayName>Date Field</displayName><dynamic>false</dynamic><name>Date Field</name><required>false</required><sensitive>false</sensitive><supportsEl>true</supportsEl></value></entry><entry><key>Load Strategy</key><value><allowableValues><displayName>FULL_LOAD</displayName><value>FULL_LOAD</value></allowableValues><allowableValues><displayName>INCREMENTAL</displayName><value>INCREMENTAL</value></allowableValues><defaultValue>FULL_LOAD</defaultValue><description>Whether to load the entire table or perform an incremental extract</description><displayName>Load Strategy</displayName><dynamic>false</dynamic><name>Load Strategy</name><required>true</required><sensitive>false</sensitive><supportsEl>false</supportsEl></value></entry><entry><key>Overlap Period</key><value><defaultValue>0 seconds</defaultValue><description>Amount of time to overlap into the last load date to ensure long running transactions missed by previous load weren't missed. Recommended: &gt;0s</description><displayName>Overlap Period</displayName><dynamic>false</dynamic><name>Overlap Period</name><required>false</required><sensitive>false</sensitive><supportsEl>true</supportsEl></value></entry><entry><key>System feed name</key><value><description>Name of feed this processor supports</description><displayName>System feed name</displayName><dynamic>false</dynamic><name>System feed name</name><required>true</required><sensitive>false</sensitive><supportsEl>true</supportsEl></value></entry><entry><key>Minimum Time Unit</key><value><allowableValues><displayName>NONE</displayName><value>NONE</value></allowableValues><allowableValues><displayName>HOUR</displayName><value>HOUR</value></allowableValues><allowableValues><displayName>DAY</displayName><value>DAY</value></allowableValues><allowableValues><displayName>WEEK</displayName><value>WEEK</value></allowableValues><allowableValues><displayName>MONTH</displayName><value>MONTH</value></allowableValues><allowableValues><displayName>YEAR</displayName><value>YEAR</value></allowableValues><defaultValue>NONE</defaultValue><description>The minimum unit of data eligible to load. For the ILM case, this would be DAY, WEEK, MONTH, YEAR , zero means there is no limit. Max time less than 1 second will be equal to zero.</description><displayName>Minimum Time Unit</displayName><dynamic>false</dynamic><name>Minimum Time Unit</name><required>true</required><sensitive>false</sensitive><supportsEl>false</supportsEl></value></entry><entry><key>Backoff Period</key><value><defaultValue>300 seconds</defaultValue><description>Only records older than the backoff period will be eligible for pickup. This can be used in the ILM use case to define a retention period. Recommended: &gt;5m</description><displayName>Backoff Period</displayName><dynamic>false</dynamic><name>Backoff Period</name><required>true</required><sensitive>false</sensitive><supportsEl>false</supportsEl></value></entry><entry><key>Source Fields</key><value><description>Field names (in order) to read from the source table. ie. the select fields. The format is separated by newline. Inconsistent order will cause corruption of the downstream Hive data.</description><displayName>Source Fields</displayName><dynamic>false</dynamic><name>Source Fields</name><required>true</required><sensitive>false</sensitive><supportsEl>true</supportsEl></value></entry><entry><key>Metadata Service</key><value><allowableValues><displayName>Think Big Metadata Service</displayName><value>345ed517-6b99-4fd2-a437-9898668f00bf</value></allowableValues><description>The Think Big metadata service</description><displayName>Metadata Service</displayName><dynamic>false</dynamic><identifiesControllerService>com.thinkbiganalytics.nifi.core.api.metadata.MetadataProviderService</identifiesControllerService><name>Metadata Service</name><required>true</required><sensitive>false</sensitive><supportsEl>false</supportsEl></value></entry><entry><key>System feed category</key><value><description>System category of feed this processor supports</description><displayName>System feed category</displayName><dynamic>false</dynamic><name>System feed category</name><required>true</required><sensitive>false</sensitive><supportsEl>true</supportsEl></value></entry><entry><key>Max Wait Time</key><value><defaultValue>0 seconds</defaultValue><description>The maximum amount of time allowed for a running SQL select query  , zero means there is no limit. Max time less than 1 second will be equal to zero.</description><displayName>Max Wait Time</displayName><dynamic>false</dynamic><name>Max Wait Time</name><required>true</required><sensitive>false</sensitive><supportsEl>false</supportsEl></value></entry><entry><key>Source Table</key><value><description>Name of table including schema (if applicable)</description><displayName>Source Table</displayName><dynamic>false</dynamic><name>Source Table</name><required>true</required><sensitive>false</sensitive><supportsEl>true</supportsEl></value></entry><entry><key>Source Database Connection</key><value><allowableValues><displayName>MySQL</displayName><value>6f7eae61-35a4-4deb-b795-ea9cccb86171</value></allowableValues><allowableValues><displayName>Example MySQL Connection Pool</displayName><value>d4d85742-1f34-4388-a93f-80ee65e9dd19</value></allowableValues><description>The database where the source table resides</description><displayName>Source Database Connection</displayName><dynamic>false</dynamic><identifiesControllerService>org.apache.nifi.dbcp.DBCPService</identifiesControllerService><name>Source Database Connection</name><required>true</required><sensitive>false</sensitive><supportsEl>false</supportsEl></value></entry></descriptors><groupId>5cf62db5-2732-44e3-ab08-27dfe09f18b7</groupId><id>ce0de2b8-590a-40b2-8a81-e6f7f4fde99c</id><name>Poll database</name><properties><entry><key>Date Field</key></entry><entry><key>Load Strategy</key><value>FULL_LOAD</value></entry><entry><key>Overlap Period</key><value>300 seconds</value></entry><entry><key>System feed name</key><value>${feed}</value></entry><entry><key>Minimum Time Unit</key><value>NONE</value></entry><entry><key>Backoff Period</key><value>300 seconds</value></entry><entry><key>Source Fields</key><value></value></entry><entry><key>Metadata Service</key><value>345ed517-6b99-4fd2-a437-9898668f00bf</value></entry><entry><key>System feed category</key><value>${category}</value></entry><entry><key>Max Wait Time</key><value>0 seconds</value></entry><entry><key>Source Table</key><value>${metadata.table.sourceTableSchema.name}</value></entry><entry><key>Source Database Connection</key><value>6f7eae61-35a4-4deb-b795-ea9cccb86171</value></entry></properties><referenceType>Processor</referenceType><state>DISABLED</state><type>com.thinkbiganalytics.nifi.v2.ingest.GetTableData</type><validationErrors>'Source Fields' validated against '' is invalid because Source Fields cannot be empty</validationErrors></referencingComponents><referencingComponents><activeThreadCount>0</activeThreadCount><descriptors><entry><key>Date Field</key><value><description>Fieldname of the source field containing the modified date for incremental load</description><displayName>Date Field</displayName><dynamic>false</dynamic><name>Date Field</name><required>false</required><sensitive>false</sensitive><supportsEl>true</supportsEl></value></entry><entry><key>Load Strategy</key><value><allowableValues><displayName>FULL_LOAD</displayName><value>FULL_LOAD</value></allowableValues><allowableValues><displayName>INCREMENTAL</displayName><value>INCREMENTAL</value></allowableValues><d